Circuit: * D:\Academics\FA2023\FA2023_ECE1895\ASSIGNMENTS\ASSIGNMENT1\LTSPICE\Draft1.asc

WARNING: Specified period is not longer than the sum of Trise, Tfall, and Ton for vcc.  Increasing period to 0.1
Limiting rise time of source vcc to 1.94289e-017
Limiting fall time of source vcc to 1.94289e-017
Direct Newton iteration for .op point succeeded.
Changing Tseed to 7.8125e-011

Date: Tue Aug 30 21:56:57 2022
Total elapsed time: 0.070 seconds.

tnom = 27
temp = 27
method = modified trap
totiter = 4126
traniter = 4121
tranpoints = 1457
accept = 1358
rejected = 98
matrix size = 14
fillins = 0
solver = Normal
Matrix Compiler1: 384 bytes object code size  0.1/0.1/[0.0]
Matrix Compiler2: 776 bytes object code size  0.1/0.1/[0.1]

