Circuit: * D:\Academics\FA2022\1895\ASSIGNMENTS\ASSIGNMENT1\LTSPICE\Draft1.asc

Direct Newton iteration for .op point succeeded.

Date: Sat Sep 03 12:50:27 2022
Total elapsed time: 0.090 seconds.

tnom = 27
temp = 27
method = modified trap
totiter = 3975
traniter = 3967
tranpoints = 1416
accept = 1330
rejected = 86
matrix size = 14
fillins = 0
solver = Normal
Matrix Compiler1: 384 bytes object code size  0.2/0.1/[0.1]
Matrix Compiler2: 776 bytes object code size  0.1/0.2/[0.1]

