Circuit: * D:\Academics\FA2022\JDFU\ASSIGNMENTS\A5\LTSPICE_BREADBOARD\Draft1.asc

Direct Newton iteration for .op point succeeded.

Date: Wed Sep 14 13:09:28 2022
Total elapsed time: 0.075 seconds.

tnom = 27
temp = 27
method = modified trap
totiter = 27036
traniter = 27028
tranpoints = 6217
accept = 5027
rejected = 1190
matrix size = 14
fillins = 0
solver = Normal
Matrix Compiler1: 384 bytes object code size  0.1/0.1/[0.0]
Matrix Compiler2: off  [0.1]/0.1/0.1

