Circuit: * D:\Academics\FA2022\JDFU\ASSIGNMENTS\A5\LTSPICE_BREADBOARD\Draft1.asc

Direct Newton iteration for .op point succeeded.

Date: Sun Oct 02 13:21:37 2022
Total elapsed time: 0.062 seconds.

tnom = 27
temp = 27
method = modified trap
totiter = 20284
traniter = 20276
tranpoints = 4845
accept = 3931
rejected = 914
matrix size = 14
fillins = 0
solver = Normal
Matrix Compiler1: 384 bytes object code size  0.1/0.1/[0.0]
Matrix Compiler2: 776 bytes object code size  0.1/0.1/[0.1]

