Circuit: * D:\Academics\FA2022\JDFU\ASSIGNMENTS\A5\LTSPICE_PCB\Draft1.asc

WARNING: Node SPEAKER_IN is floating.

WARNING: Less than two connections to node SPEAKER_IN.  This node is used by C100U2.
Direct Newton iteration for .op point succeeded.

Date: Fri Sep 09 18:20:36 2022
Total elapsed time: 0.425 seconds.

tnom = 27
temp = 27
method = modified trap
totiter = 107895
traniter = 107887
tranpoints = 24884
accept = 19130
rejected = 5754
matrix size = 15
fillins = 0
solver = Normal
Matrix Compiler1: off  [0.2]/0.2/0.2
Matrix Compiler2: off  [0.2]/0.4/0.2

